13Bus/IEEE13Nodeckt_VLN_Node.Txt

LINE-GROUND and LINE-LINE VOLTAGES BY BUS & NODE

Bus       Node    VLN (kV)   Angle      pu     Base kV    Node-Node   VLL (kV)  Angle      pu

SOURCEBUS 1       66.394 /_   30.0   0.99997   115.000        1-2        115 /_   60.0         1
   -      2       66.394 /_  -90.0   0.99998   115.000        2-3     114.99 /_  -60.0   0.99993
   -      3       66.389 /_  150.0    0.9999   115.000        3-1     114.99 /_  180.0   0.99992
650 ..... 1       2.4015 /_    0.0   0.99988     4.160        1-2     4.1597 /_   30.0   0.99994
   -      2       2.4017 /_ -120.0   0.99998     4.160        2-3     4.1598 /_  -90.0   0.99995
   -      3       2.4015 /_  120.0   0.99988     4.160        3-1     4.1594 /_  150.0   0.99985
RG60 .... 1       2.5363 /_    0.0     1.056     4.160        1-2     4.3544 /_   29.7    1.0467
   -      2       2.4916 /_ -120.0    1.0374     4.160        2-3     4.3935 /_  -89.4    1.0561
   -      3       2.5812 /_  120.0    1.0747     4.160        3-1     4.4317 /_  149.7    1.0653
633 ..... 1       2.4636 /_   -2.8    1.0257     4.160        1-2     4.2266 /_   28.0     1.016
   -      2         2.46 /_ -121.1    1.0243     4.160        2-3     4.2533 /_  -92.8    1.0224
   -      3         2.39 /_  116.4    0.9951     4.160        3-1     4.1858 /_  147.3    1.0062
634 ..... 1      0.27767 /_   -3.5     1.002     0.480        1-2     0.4771 /_   27.6   0.99396
   -      2      0.27868 /_ -121.5    1.0056     0.480        2-3    0.48162 /_  -93.3    1.0034
   -      3      0.27044 /_  115.9   0.97588     0.480        3-1     0.4731 /_  146.7   0.98563
671 ..... 1       2.4306 /_   -5.7     1.012     4.160        1-2     4.1506 /_   27.1   0.99775
   -      2       2.4845 /_ -120.9    1.0344     4.160        2-3     4.2212 /_  -95.4    1.0147
   -      3       2.2483 /_  112.9   0.93608     4.160        3-1     4.0245 /_  144.9   0.96743
645 ..... 2       2.4423 /_ -121.2    1.0169     4.160        2-3      4.236 /_  -92.7    1.0183
   -      3       2.3918 /_  116.4   0.99586     4.160
646 ..... 2       2.4381 /_ -121.3    1.0151     4.160        2-3     4.2255 /_  -92.7    1.0158
   -      3       2.3869 /_  116.5    0.9938     4.160
692 ..... 1       2.4306 /_   -5.7     1.012     4.160        1-2     4.1506 /_   27.1   0.99775
   -      2       2.4845 /_ -120.9    1.0344     4.160        2-3     4.2212 /_  -95.4    1.0147
   -      3       2.2483 /_  112.9   0.93608     4.160        3-1     4.0245 /_  144.9   0.96743
675 ..... 1       2.4153 /_   -5.9    1.0056     4.160        1-2     4.1412 /_   27.0   0.99548
   -      2       2.4903 /_ -121.1    1.0368     4.160        2-3      4.218 /_  -95.6    1.0139
   -      3       2.2431 /_  113.0   0.93393     4.160        3-1     4.0125 /_  144.8   0.96455
611 ..... 3       2.2004 /_  112.2   0.91616     4.160
652 ..... 1       2.4176 /_   -5.7    1.0066     4.160
670 ..... 1       2.4578 /_   -3.7    1.0233     4.160        1-2     4.2075 /_   27.7    1.0114
   -      2       2.4693 /_ -121.0    1.0281     4.160        2-3     4.2459 /_  -93.7    1.0207
   -      3       2.3431 /_  115.2   0.97557     4.160        3-1     4.1348 /_  146.6   0.99394
632 ..... 1       2.4708 /_   -2.7    1.0287     4.160        1-2     4.2371 /_   28.1    1.0185
   -      2       2.4647 /_ -121.0    1.0262     4.160        2-3     4.2638 /_  -92.8     1.025
   -      3       2.3964 /_  116.4   0.99778     4.160        3-1     4.1963 /_  147.3    1.0087
680 ..... 1       2.4306 /_   -5.7     1.012     4.160        1-2     4.1506 /_   27.1   0.99775
   -      2       2.4845 /_ -120.9    1.0344     4.160        2-3     4.2212 /_  -95.4    1.0147
   -      3       2.2483 /_  112.9   0.93608     4.160        3-1     4.0245 /_  144.9   0.96743
684 ..... 1       2.4313 /_   -5.8    1.0123     4.160
   -      3       2.2242 /_  112.6   0.92607     4.160        3-1     3.9986 /_  144.9    0.9612
