13Bus/IEEE13Nodeckt_VLN_elem.Txt

NODE-GROUND VOLTAGES BY CIRCUIT ELEMENT

Power Delivery Elements

Bus       (node ref)  Phase    Magnitude, kV (pu)    Angle

ELEMENT = "Vsource.SOURCE"
SOURCEBUS  (  1)    1                0 (       0) /_    0.0
SOURCEBUS  (  2)    2                0 (       0) /_    0.0
SOURCEBUS  (  3)    3                0 (       0) /_    0.0
------------
SOURCEBUS  (  0)    0                0 (       0) /_    0.0
SOURCEBUS  (  0)    0                0 (       0) /_    0.0
SOURCEBUS  (  0)    0                0 (       0) /_    0.0

ELEMENT = "Transformer.SUB"
SOURCEBUS  (  1)    1                0 (       0) /_    0.0
SOURCEBUS  (  2)    2                0 (       0) /_    0.0
SOURCEBUS  (  3)    3                0 (       0) /_    0.0
SOURCEBUS  (  0)    0                0 (       0) /_    0.0
------------
650        (  4)    1                0 (       0) /_    0.0
650        (  5)    2                0 (       0) /_    0.0
650        (  6)    3                0 (       0) /_    0.0
650        (  0)    0                0 (       0) /_    0.0

ELEMENT = "Transformer.REG1"
650        (  4)    1                0 (       0) /_    0.0
650        (  0)    0                0 (       0) /_    0.0
------------
RG60       (  7)    1                0 (       0) /_    0.0
RG60       (  0)    0                0 (       0) /_    0.0

ELEMENT = "Transformer.REG2"
650        (  5)    2                0 (       0) /_    0.0
650        (  0)    0                0 (       0) /_    0.0
------------
RG60       (  8)    2                0 (       0) /_    0.0
RG60       (  0)    0                0 (       0) /_    0.0

ELEMENT = "Transformer.REG3"
650        (  6)    3                0 (       0) /_    0.0
650        (  0)    0                0 (       0) /_    0.0
------------
RG60       (  9)    3                0 (       0) /_    0.0
RG60       (  0)    0                0 (       0) /_    0.0

ELEMENT = "Transformer.XFM1"
633        ( 10)    1                0 (       0) /_    0.0
633        ( 11)    2                0 (       0) /_    0.0
633        ( 12)    3                0 (       0) /_    0.0
633        (  0)    0                0 (       0) /_    0.0
------------
634        ( 13)    1                0 (       0) /_    0.0
634        ( 14)    2                0 (       0) /_    0.0
634        ( 15)    3                0 (       0) /_    0.0
634        (  0)    0                0 (       0) /_    0.0

ELEMENT = "Capacitor.CAP1"
675        ( 24)    1                0 (       0) /_    0.0
675        ( 25)    2                0 (       0) /_    0.0
675        ( 26)    3                0 (       0) /_    0.0
------------
675        (  0)    0                0 (       0) /_    0.0
675        (  0)    0                0 (       0) /_    0.0
675        (  0)    0                0 (       0) /_    0.0

ELEMENT = "Capacitor.CAP2"
611        ( 27)    3                0 (       0) /_    0.0
------------
611        (  0)    0                0 (       0) /_    0.0

ELEMENT = "Line.650632"
RG60       (  7)    1                0 (       0) /_    0.0
RG60       (  8)    2                0 (       0) /_    0.0
RG60       (  9)    3                0 (       0) /_    0.0
------------
632        ( 32)    1                0 (       0) /_    0.0
632        ( 33)    2                0 (       0) /_    0.0
632        ( 42)    3                0 (       0) /_    0.0

ELEMENT = "Line.632670"
632        ( 32)    1                0 (       0) /_    0.0
632        ( 33)    2                0 (       0) /_    0.0
632        ( 42)    3                0 (       0) /_    0.0
------------
670        ( 29)    1                0 (       0) /_    0.0
670        ( 30)    2                0 (       0) /_    0.0
670        ( 31)    3                0 (       0) /_    0.0

ELEMENT = "Line.670671"
670        ( 29)    1                0 (       0) /_    0.0
670        ( 30)    2                0 (       0) /_    0.0
670        ( 31)    3                0 (       0) /_    0.0
------------
671        ( 16)    1                0 (       0) /_    0.0
671        ( 17)    2                0 (       0) /_    0.0
671        ( 18)    3                0 (       0) /_    0.0

ELEMENT = "Line.671680"
671        ( 16)    1                0 (       0) /_    0.0
671        ( 17)    2                0 (       0) /_    0.0
671        ( 18)    3                0 (       0) /_    0.0
------------
680        ( 34)    1                0 (       0) /_    0.0
680        ( 35)    2                0 (       0) /_    0.0
680        ( 43)    3                0 (       0) /_    0.0

ELEMENT = "Line.632633"
632        ( 32)    1                0 (       0) /_    0.0
632        ( 33)    2                0 (       0) /_    0.0
632        ( 42)    3                0 (       0) /_    0.0
------------
633        ( 10)    1                0 (       0) /_    0.0
633        ( 11)    2                0 (       0) /_    0.0
633        ( 12)    3                0 (       0) /_    0.0

ELEMENT = "Line.632645"
632        ( 42)    3                0 (       0) /_    0.0
632        ( 33)    2                0 (       0) /_    0.0
------------
645        ( 44)    3                0 (       0) /_    0.0
645        ( 19)    2                0 (       0) /_    0.0

ELEMENT = "Line.645646"
645        ( 44)    3                0 (       0) /_    0.0
645        ( 19)    2                0 (       0) /_    0.0
------------
646        ( 21)    3                0 (       0) /_    0.0
646        ( 20)    2                0 (       0) /_    0.0

ELEMENT = "Line.692675"
692        ( 23)    1                0 (       0) /_    0.0
692        ( 40)    2                0 (       0) /_    0.0
692        ( 22)    3                0 (       0) /_    0.0
------------
675        ( 24)    1                0 (       0) /_    0.0
675        ( 25)    2                0 (       0) /_    0.0
675        ( 26)    3                0 (       0) /_    0.0

ELEMENT = "Line.671684"
671        ( 16)    1                0 (       0) /_    0.0
671        ( 18)    3                0 (       0) /_    0.0
------------
684        ( 36)    1                0 (       0) /_    0.0
684        ( 45)    3                0 (       0) /_    0.0

ELEMENT = "Line.684611"
684        ( 45)    3                0 (       0) /_    0.0
------------
611        ( 27)    3                0 (       0) /_    0.0

ELEMENT = "Line.684652"
684        ( 36)    1                0 (       0) /_    0.0
------------
652        ( 28)    1                0 (       0) /_    0.0

ELEMENT = "Line.671692"
671        ( 16)    1                0 (       0) /_    0.0
671        ( 17)    2                0 (       0) /_    0.0
671        ( 18)    3                0 (       0) /_    0.0
------------
692        ( 23)    1                0 (       0) /_    0.0
692        ( 40)    2                0 (       0) /_    0.0
692        ( 22)    3                0 (       0) /_    0.0

= = = = = = = = = = = = = = = = = = =  = = = = = = = = = = =  = =

Power Conversion Elements

Bus       (node ref)  Phase    Magnitude, kV (pu)    Angle

ELEMENT = "Load.671"
671        ( 16)    1                0 (       0) /_    0.0
671        ( 17)    2                0 (       0) /_    0.0
671        ( 18)    3                0 (       0) /_    0.0

ELEMENT = "Load.634A"
634        ( 13)    1                0 (       0) /_    0.0
634        (  0)    0                0 (       0) /_    0.0

ELEMENT = "Load.634B"
634        ( 14)    2                0 (       0) /_    0.0
634        (  0)    0                0 (       0) /_    0.0

ELEMENT = "Load.634C"
634        ( 15)    3                0 (       0) /_    0.0
634        (  0)    0                0 (       0) /_    0.0

ELEMENT = "Load.645"
645        ( 19)    2                0 (       0) /_    0.0
645        (  0)    0                0 (       0) /_    0.0

ELEMENT = "Load.646"
646        ( 20)    2                0 (       0) /_    0.0
646        ( 21)    3                0 (       0) /_    0.0

ELEMENT = "Load.692"
692        ( 22)    3                0 (       0) /_    0.0
692        ( 23)    1                0 (       0) /_    0.0

ELEMENT = "Load.675A"
675        ( 24)    1                0 (       0) /_    0.0
675        (  0)    0                0 (       0) /_    0.0

ELEMENT = "Load.675B"
675        ( 25)    2                0 (       0) /_    0.0
675        (  0)    0                0 (       0) /_    0.0

ELEMENT = "Load.675C"
675        ( 26)    3                0 (       0) /_    0.0
675        (  0)    0                0 (       0) /_    0.0

ELEMENT = "Load.611"
611        ( 27)    3                0 (       0) /_    0.0
611        (  0)    0                0 (       0) /_    0.0

ELEMENT = "Load.652"
652        ( 28)    1                0 (       0) /_    0.0
652        (  0)    0                0 (       0) /_    0.0

ELEMENT = "Load.670A"
670        ( 29)    1                0 (       0) /_    0.0
670        (  0)    0                0 (       0) /_    0.0

ELEMENT = "Load.670B"
670        ( 30)    2                0 (       0) /_    0.0
670        (  0)    0                0 (       0) /_    0.0

ELEMENT = "Load.670C"
670        ( 31)    3                0 (       0) /_    0.0
670        (  0)    0                0 (       0) /_    0.0

ELEMENT = "Load.633EV"
633        ( 10)    1                0 (       0) /_    0.0
633        ( 11)    2                0 (       0) /_    0.0

ELEMENT = "Load.632EV"
632        ( 32)    1                0 (       0) /_    0.0
632        ( 33)    2                0 (       0) /_    0.0

ELEMENT = "Load.680EV"
680        ( 34)    1                0 (       0) /_    0.0
680        ( 35)    2                0 (       0) /_    0.0

ELEMENT = "Load.684EV"
684        ( 36)    1                0 (       0) /_    0.0
684        ( 37)    2                0 (       0) /_    0.0

ELEMENT = "Load.634EV"
634        ( 13)    1                0 (       0) /_    0.0
634        ( 14)    2                0 (       0) /_    0.0

ELEMENT = "Load.671EV"
671        ( 16)    1                0 (       0) /_    0.0
671        ( 17)    2                0 (       0) /_    0.0

ELEMENT = "Load.645EV"
645        ( 38)    1                0 (       0) /_    0.0
645        ( 19)    2                0 (       0) /_    0.0

ELEMENT = "Load.646EV"
646        ( 39)    1                0 (       0) /_    0.0
646        ( 20)    2                0 (       0) /_    0.0

ELEMENT = "Load.692EV"
692        ( 23)    1                0 (       0) /_    0.0
692        ( 40)    2                0 (       0) /_    0.0

ELEMENT = "Load.675EV"
675        ( 24)    1                0 (       0) /_    0.0
675        ( 25)    2                0 (       0) /_    0.0

ELEMENT = "Load.611EV"
611        ( 41)    1                0 (       0) /_    0.0
611        (  0)    0                0 (       0) /_    0.0

ELEMENT = "Load.652EV"
652        ( 28)    1                0 (       0) /_    0.0
652        (  0)    0                0 (       0) /_    0.0

